*Node,nset=nall
      1,          20.,           2.,         100.
      2,          20.,          1.5,         100.
      3,          20.,           1.,         100.
      4,          20.,          0.5,         100.
      5,          20.,           0.,         100.
      6,          20.,           2.,         99.5
      7,          20.,          1.5,         99.5
      8,          20.,           1.,         99.5
      9,          20.,          0.5,         99.5
     10,          20.,           0.,         99.5
     11,          20.,           2.,          99.
     12,          20.,          1.5,          99.
     13,          20.,           1.,          99.
     14,          20.,          0.5,          99.
     15,          20.,           0.,          99.
     16,          20.,           2.,         98.5
     17,          20.,          1.5,         98.5
     18,          20.,           1.,         98.5
     19,          20.,          0.5,         98.5
     20,          20.,           0.,         98.5
** ... 41185 like lines cut
*Element, type=C3D8
    1,  1006,  1007,  1012,  1011,     1,     2,     7,     6
    2,  1007,  1008,  1013,  1012,     2,     3,     8,     7
    3,  1008,  1009,  1014,  1013,     3,     4,     9,     8
    4,  1009,  1010,  1015,  1014,     4,     5,    10,     9
    5,  1011,  1012,  1017,  1016,     6,     7,    12,    11
    6,  1012,  1013,  1018,  1017,     7,     8,    13,    12
    7,  1013,  1014,  1019,  1018,     8,     9,    14,    13
    8,  1014,  1015,  1020,  1019,     9,    10,    15,    14
    9,  1016,  1017,  1022,  1021,    11,    12,    17,    16
   10,  1017,  1018,  1023,  1022,    12,    13,    18,    17
   11,  1018,  1019,  1024,  1023,    13,    14,    19,    18
   12,  1019,  1020,  1025,  1024,    14,    15,    20,    19
   13,  1021,  1022,  1027,  1026,    16,    17,    22,    21
   14,  1022,  1023,  1028,  1027,    17,    18,    23,    22
   15,  1023,  1024,  1029,  1028,    18,    19,    24,    23
   16,  1024,  1025,  1030,  1029,    19,    20,    25,    24
   17,  1026,  1027,  1032,  1031,    21,    22,    27,    26
   18,  1027,  1028,  1033,  1032,    22,    23,    28,    27
   19,  1028,  1029,  1034,  1033,    23,    24,    29,    28
   20,  1029,  1030,  1035,  1034,    24,    25,    30,    29
** ... 31980 like lines cut
*Nset, nset=plate-1_Set-1, generate
     1,  41205,      1
*Elset, elset=plate-1_Set-1, generate
     1,  32000,      1
** Section: Section-1
*Solid Section, elset=plate-1_Set-1, material=Material-1
*Nset, nset=Set-1
  1001,  1002,  1003,  1004,  1005,  2006,  2007,  2008,  2009,  2010,  3011,  3012,  3013,  3014,  3015,  4016
  4017,  4018,  4019,  4020,  5021,  5022,  5023,  5024,  5025,  6026,  6027,  6028,  6029,  6030,  7031,  7032
  7033,  7034,  7035,  8036,  8037,  8038,  8039,  8040,  9041,  9042,  9043,  9044,  9045, 10046, 10047, 10048
 10049, 10050, 11051, 11052, 11053, 11054, 11055, 12056, 12057, 12058, 12059, 12060, 13061, 13062, 13063, 13064
 13065, 14066, 14067, 14068, 14069, 14070, 15071, 15072, 15073, 15074, 15075, 16076, 16077, 16078, 16079, 16080
 17081, 17082, 17083, 17084, 17085, 18086, 18087, 18088, 18089, 18090, 19091, 19092, 19093, 19094, 19095, 20096
 20097, 20098, 20099, 20100, 21101, 21102, 21103, 21104, 21105, 22106, 22107, 22108, 22109, 22110, 23111, 23112
 23113, 23114, 23115, 24116, 24117, 24118, 24119, 24120, 25121, 25122, 25123, 25124, 25125, 26126, 26127, 26128
 26129, 26130, 27131, 27132, 27133, 27134, 27135, 28136, 28137, 28138, 28139, 28140, 29141, 29142, 29143, 29144
 29145, 30146, 30147, 30148, 30149, 30150, 31151, 31152, 31153, 31154, 31155, 32156, 32157, 32158, 32159, 32160
 33161, 33162, 33163, 33164, 33165, 34166, 34167, 34168, 34169, 34170, 35171, 35172, 35173, 35174, 35175, 36176
 36177, 36178, 36179, 36180, 37181, 37182, 37183, 37184, 37185, 38186, 38187, 38188, 38189, 38190, 39191, 39192
 39193, 39194, 39195, 40196, 40197, 40198, 40199, 40200, 41201, 41202, 41203, 41204, 41205
*Elset, elset=Set-1
   797,   798,   799,   800,  1597,  1598,  1599,  1600,  2397,  2398,  2399,  2400,  3197,  3198,  3199,  3200
  3997,  3998,  3999,  4000,  4797,  4798,  4799,  4800,  5597,  5598,  5599,  5600,  6397,  6398,  6399,  6400
  7197,  7198,  7199,  7200,  7997,  7998,  7999,  8000,  8797,  8798,  8799,  8800,  9597,  9598,  9599,  9600
 10397, 10398, 10399, 10400, 11197, 11198, 11199, 11200, 11997, 11998, 11999, 12000, 12797, 12798, 12799, 12800
 13597, 13598, 13599, 13600, 14397, 14398, 14399, 14400, 15197, 15198, 15199, 15200, 15997, 15998, 15999, 16000
 16797, 16798, 16799, 16800, 17597, 17598, 17599, 17600, 18397, 18398, 18399, 18400, 19197, 19198, 19199, 19200
 19997, 19998, 19999, 20000, 20797, 20798, 20799, 20800, 21597, 21598, 21599, 21600, 22397, 22398, 22399, 22400
 23197, 23198, 23199, 23200, 23997, 23998, 23999, 24000, 24797, 24798, 24799, 24800, 25597, 25598, 25599, 25600
 26397, 26398, 26399, 26400, 27197, 27198, 27199, 27200, 27997, 27998, 27999, 28000, 28797, 28798, 28799, 28800
 29597, 29598, 29599, 29600, 30397, 30398, 30399, 30400, 31197, 31198, 31199, 31200, 31997, 31998, 31999, 32000
*Nset, nset=Set-2, generate
 40201,  41205,      1
*Elset, elset=Set-2, generate
 31201,  32000,      1
*Nset, nset=Set-3, generate
 41201,  41205,      1
*Elset, elset=Set-3, generate
 31997,  32000,      1
*Elset, elset=_Surf-1_S6, generate
     1,  31997,      4
** 
** MATERIALS
** 
*Material, name=Material-1
*Conductivity
50.,
*Density
 7.85e-09,
*Elastic
210000., 0.333
*Expansion
 1.2e-05,
*Specific Heat
 5e+08,
** ----------------------------------------------------------------
*elset,elset=loaded,generate
1,31997,4
*initial conditions,type=temperature
nall,0
** 
** STEP: Step-1
** 
*Step
*Coupled Temperature-displacement, direct
0.1, 0.5, 
** 
*dflux
loaded,S6,50.0
** BOUNDARY CONDITIONS
** 
** Name: BC-1 Type: Displacement/Rotation
*Boundary
Set-1, 3, 3
** Name: BC-2 Type: Displacement/Rotation
*Boundary
Set-2, 1, 1
** Name: BC-3 Type: Displacement/Rotation
*Boundary
Set-3, 2, 2
** OUTPUT REQUESTS
*node file
nt,u
*el file
s
*End Step
